# generated using pymatgen
data_CuH6C6(N2O)4
_symmetry_space_group_name_H-M   'P 1'
_cell_length_a   24.10208089
_cell_length_b   24.10208106
_cell_length_c   4.29776880
_cell_angle_alpha   90.00000026
_cell_angle_beta   89.99999659
_cell_angle_gamma   89.99999973
_symmetry_Int_Tables_number   1
_chemical_formula_structural   CuH6C6(N2O)4
_chemical_formula_sum   'Cu8 H48 C48 N64 O32'
_cell_volume   2496.61819635
_cell_formula_units_Z   8
loop_
 _symmetry_equiv_pos_site_id
 _symmetry_equiv_pos_as_xyz
  1  'x, y, z'
loop_
 _atom_site_type_symbol
 _atom_site_label
 _atom_site_symmetry_multiplicity
 _atom_site_fract_x
 _atom_site_fract_y
 _atom_site_fract_z
 _atom_site_occupancy
  Cu  Cu0  1  0.50000000  -0.00000000  -0.00000000  1
  Cu  Cu1  1  -0.00000000  0.50000000  0.50000000  1
  Cu  Cu2  1  -0.00000000  -0.00000000  0.50000000  1
  Cu  Cu3  1  0.50000000  0.50000000  -0.00000000  1
  Cu  Cu4  1  0.74999999  0.75000000  0.25000000  1
  Cu  Cu5  1  0.74999999  0.25000000  0.75000000  1
  Cu  Cu6  1  0.25000001  0.25000000  0.75000000  1
  Cu  Cu7  1  0.25000001  0.75000000  0.25000000  1
  H  H8  1  0.56014298  0.83250984  0.59754625  1
  H  H9  1  0.59621668  0.88908928  0.41963946  1
  H  H10  1  0.62467496  0.79688024  0.17223559  1
  H  H11  1  0.06014298  0.33250984  0.09754625  1
  H  H12  1  0.09621668  0.38908929  0.91963946  1
  H  H13  1  0.12467496  0.29688024  0.67223559  1
  H  H14  1  0.93985701  0.16749016  0.09754626  1
  H  H15  1  0.90378332  0.11091071  0.91963943  1
  H  H16  1  0.87532504  0.20311976  0.67223560  1
  H  H17  1  0.43985702  0.66749017  0.59754626  1
  H  H18  1  0.40378332  0.61091071  0.41963938  1
  H  H19  1  0.37532504  0.70311976  0.17223561  1
  H  H20  1  0.91749016  0.81014299  0.84754627  1
  H  H21  1  0.86091071  0.84621668  0.66963944  1
  H  H22  1  0.95311976  0.87467496  0.42223559  1
  H  H23  1  0.41749016  0.31014298  0.34754626  1
  H  H24  1  0.36091071  0.34621668  0.16963944  1
  H  H25  1  0.45311976  0.37467496  0.92223561  1
  H  H26  1  0.58250984  0.18985701  0.34754626  1
  H  H27  1  0.63908929  0.15378332  0.16963943  1
  H  H28  1  0.54688024  0.12532504  0.92223559  1
  H  H29  1  0.08250984  0.68985701  0.84754627  1
  H  H30  1  0.13908929  0.65378332  0.66963940  1
  H  H31  1  0.04688024  0.62532504  0.42223559  1
  H  H32  1  0.43985702  0.16749016  0.40245374  1
  H  H33  1  0.40378332  0.11091071  0.58036054  1
  H  H34  1  0.37532504  0.20311976  0.82776441  1
  H  H35  1  0.93985702  0.66749016  0.90245375  1
  H  H36  1  0.90378332  0.61091072  0.08036054  1
  H  H37  1  0.87532504  0.70311976  0.32776441  1
  H  H38  1  0.06014298  0.83250984  0.90245374  1
  H  H39  1  0.09621668  0.88908929  0.08036057  1
  H  H40  1  0.12467496  0.79688024  0.32776440  1
  H  H41  1  0.56014298  0.33250983  0.40245374  1
  H  H42  1  0.59621668  0.38908929  0.58036062  1
  H  H43  1  0.62467496  0.29688024  0.82776439  1
  H  H44  1  0.08250984  0.18985701  0.15245374  1
  H  H45  1  0.13908929  0.15378332  0.33036056  1
  H  H46  1  0.04688024  0.12532504  0.57776440  1
  H  H47  1  0.58250984  0.68985702  0.65245374  1
  H  H48  1  0.63908929  0.65378332  0.83036057  1
  H  H49  1  0.54688024  0.62532504  0.07776439  1
  H  H50  1  0.41749016  0.81014299  0.65245373  1
  H  H51  1  0.36091071  0.84621668  0.83036059  1
  H  H52  1  0.45311976  0.87467496  0.07776442  1
  H  H53  1  0.91749016  0.31014299  0.15245374  1
  H  H54  1  0.86091071  0.34621668  0.33036058  1
  H  H55  1  0.95311976  0.37467496  0.57776441  1
  C  C56  1  0.56510399  0.90866360  0.86814773  1
  C  C57  1  0.58914597  0.86663259  0.64874383  1
  C  C58  1  0.65324932  0.81263908  0.00082981  1
  C  C59  1  0.06510398  0.40866360  0.36814776  1
  C  C60  1  0.08914597  0.36663259  0.14874381  1
  C  C61  1  0.15324931  0.31263908  0.50082982  1
  C  C62  1  0.93489604  0.09133639  0.36814773  1
  C  C63  1  0.91085403  0.13336740  0.14874379  1
  C  C64  1  0.84675069  0.18736091  0.50082980  1
  C  C65  1  0.43489604  0.59133640  0.86814768  1
  C  C66  1  0.41085403  0.63336740  0.64874381  1
  C  C67  1  0.34675068  0.68736091  0.00082977  1
  C  C68  1  0.84133639  0.81510396  0.11814773  1
  C  C69  1  0.88336741  0.83914597  0.89874379  1
  C  C70  1  0.93736091  0.90324931  0.25082979  1
  C  C71  1  0.34133640  0.31510399  0.61814775  1
  C  C72  1  0.38336740  0.33914597  0.39874384  1
  C  C73  1  0.43736092  0.40324931  0.75082983  1
  C  C74  1  0.65866361  0.18489605  0.61814770  1
  C  C75  1  0.61663259  0.16085403  0.39874378  1
  C  C76  1  0.56263909  0.09675069  0.75082978  1
  C  C77  1  0.15866361  0.68489605  0.11814770  1
  C  C78  1  0.11663259  0.66085404  0.89874377  1
  C  C79  1  0.06263908  0.59675069  0.25082978  1
  C  C80  1  0.43489602  0.09133640  0.13185227  1
  C  C81  1  0.41085403  0.13336741  0.35125619  1
  C  C82  1  0.34675068  0.18736091  0.99917020  1
  C  C83  1  0.93489600  0.59133641  0.63185223  1
  C  C84  1  0.91085403  0.63336741  0.85125617  1
  C  C85  1  0.84675069  0.68736092  0.49917017  1
  C  C86  1  0.06510396  0.90866361  0.63185228  1
  C  C87  1  0.08914597  0.86663260  0.85125620  1
  C  C88  1  0.15324931  0.81263909  0.49917019  1
  C  C89  1  0.56510396  0.40866361  0.13185231  1
  C  C90  1  0.58914597  0.36663259  0.35125620  1
  C  C91  1  0.65324931  0.31263909  0.99917024  1
  C  C92  1  0.15866361  0.18489603  0.88185226  1
  C  C93  1  0.11663260  0.16085403  0.10125619  1
  C  C94  1  0.06263909  0.09675069  0.74917020  1
  C  C95  1  0.65866360  0.68489602  0.38185226  1
  C  C96  1  0.61663260  0.66085403  0.60125618  1
  C  C97  1  0.56263908  0.59675069  0.24917018  1
  C  C98  1  0.34133639  0.81510395  0.38185230  1
  C  C99  1  0.38336741  0.83914597  0.60125622  1
  C  C100  1  0.43736092  0.90324931  0.24917023  1
  C  C101  1  0.84133639  0.31510395  0.88185228  1
  C  C102  1  0.88336741  0.33914596  0.10125623  1
  C  C103  1  0.93736092  0.40324931  0.74917022  1
  N  N104  1  0.64130679  0.84452314  0.75723978  1
  N  N105  1  0.68920569  0.85622849  0.60008267  1
  N  N106  1  0.72880184  0.83010759  0.74782446  1
  N  N107  1  0.70772559  0.80295637  0.99478365  1
  N  N108  1  0.14130678  0.34452315  0.25723978  1
  N  N109  1  0.18920569  0.35622849  0.10008268  1
  N  N110  1  0.22880184  0.33010758  0.24782446  1
  N  N111  1  0.20772558  0.30295637  0.49478365  1
  N  N112  1  0.85869321  0.15547686  0.25723975  1
  N  N113  1  0.81079432  0.14377150  0.10008265  1
  N  N114  1  0.77119814  0.16989242  0.24782447  1
  N  N115  1  0.79227440  0.19704364  0.49478368  1
  N  N116  1  0.35869320  0.65547686  0.75723972  1
  N  N117  1  0.31079431  0.64377149  0.60008253  1
  N  N118  1  0.27119811  0.66989242  0.74782445  1
  N  N119  1  0.29227439  0.69704364  0.99478370  1
  N  N120  1  0.90547686  0.89130679  0.00723976  1
  N  N121  1  0.89377151  0.93920568  0.85008269  1
  N  N122  1  0.91989242  0.97880185  0.99782448  1
  N  N123  1  0.94704364  0.95772560  0.24478368  1
  N  N124  1  0.40547684  0.39130678  0.50723972  1
  N  N125  1  0.39377147  0.43920569  0.35008243  1
  N  N126  1  0.41989241  0.47880189  0.49782444  1
  N  N127  1  0.44704363  0.45772561  0.74478368  1
  N  N128  1  0.59452313  0.10869320  0.50723977  1
  N  N129  1  0.60622848  0.06079432  0.35008271  1
  N  N130  1  0.58010758  0.02119815  0.49782447  1
  N  N131  1  0.55295636  0.04227441  0.74478368  1
  N  N132  1  0.09452313  0.60869320  0.00723976  1
  N  N133  1  0.10622848  0.56079431  0.85008272  1
  N  N134  1  0.08010758  0.52119815  0.99782447  1
  N  N135  1  0.05295636  0.54227441  0.24478367  1
  N  N136  1  0.35869321  0.15547686  0.24276022  1
  N  N137  1  0.31079431  0.14377151  0.39991731  1
  N  N138  1  0.27119816  0.16989241  0.25217553  1
  N  N139  1  0.29227441  0.19704363  0.00521634  1
  N  N140  1  0.85869322  0.65547686  0.74276022  1
  N  N141  1  0.81079431  0.64377151  0.89991733  1
  N  N142  1  0.77119817  0.66989242  0.75217555  1
  N  N143  1  0.79227442  0.69704363  0.50521635  1
  N  N144  1  0.14130679  0.84452315  0.74276026  1
  N  N145  1  0.18920569  0.85622851  0.89991745  1
  N  N146  1  0.22880187  0.83010758  0.75217554  1
  N  N147  1  0.20772560  0.80295636  0.50521632  1
  N  N148  1  0.64130680  0.34452313  0.24276027  1
  N  N149  1  0.68920569  0.35622849  0.39991737  1
  N  N150  1  0.72880188  0.33010758  0.25217555  1
  N  N151  1  0.70772561  0.30295635  0.00521629  1
  N  N152  1  0.09452314  0.10869321  0.99276023  1
  N  N153  1  0.10622849  0.06079432  0.14991732  1
  N  N154  1  0.08010758  0.02119815  0.00217553  1
  N  N155  1  0.05295636  0.04227441  0.75521631  1
  N  N156  1  0.59452315  0.60869322  0.49276029  1
  N  N157  1  0.60622853  0.56079432  0.64991756  1
  N  N158  1  0.58010758  0.52119811  0.50217555  1
  N  N159  1  0.55295637  0.54227439  0.25521631  1
  N  N160  1  0.40547687  0.89130680  0.49276024  1
  N  N161  1  0.39377152  0.93920568  0.64991731  1
  N  N162  1  0.41989242  0.97880186  0.50217554  1
  N  N163  1  0.44704365  0.95772560  0.25521629  1
  N  N164  1  0.90547687  0.39130680  0.99276023  1
  N  N165  1  0.89377152  0.43920569  0.14991726  1
  N  N166  1  0.91989242  0.47880184  0.00217552  1
  N  N167  1  0.94704363  0.45772559  0.75521635  1
  O  O168  1  0.51742807  0.92814150  0.78476649  1
  O  O169  1  0.59282500  0.92361065  0.09782724  1
  O  O170  1  0.01742807  0.42814149  0.28476646  1
  O  O171  1  0.09282500  0.42361064  0.59782723  1
  O  O172  1  0.98257192  0.07185852  0.28476644  1
  O  O173  1  0.90717497  0.07638936  0.59782734  1
  O  O174  1  0.48257196  0.57185853  0.78476625  1
  O  O175  1  0.40717492  0.57638934  0.09782767  1
  O  O176  1  0.82185853  0.76742807  0.03476641  1
  O  O177  1  0.82638936  0.84282502  0.34782733  1
  O  O178  1  0.32185850  0.26742804  0.53476642  1
  O  O179  1  0.32638933  0.34282501  0.84782735  1
  O  O180  1  0.67814148  0.23257191  0.53476643  1
  O  O181  1  0.67361064  0.15717496  0.84782738  1
  O  O182  1  0.17814146  0.73257193  0.03476636  1
  O  O183  1  0.17361063  0.65717495  0.34782746  1
  O  O184  1  0.48257193  0.07185851  0.21523351  1
  O  O185  1  0.40717499  0.07638936  0.90217274  1
  O  O186  1  0.98257193  0.57185851  0.71523354  1
  O  O187  1  0.90717500  0.57638935  0.40217280  1
  O  O188  1  0.01742807  0.92814149  0.71523357  1
  O  O189  1  0.09282502  0.92361065  0.40217262  1
  O  O190  1  0.51742805  0.42814146  0.21523374  1
  O  O191  1  0.59282508  0.42361065  0.90217237  1
  O  O192  1  0.17814149  0.23257193  0.96523356  1
  O  O193  1  0.17361064  0.15717498  0.65217270  1
  O  O194  1  0.67814149  0.73257195  0.46523361  1
  O  O195  1  0.67361066  0.65717498  0.15217261  1
  O  O196  1  0.32185853  0.76742807  0.46523364  1
  O  O197  1  0.32638936  0.84282505  0.15217252  1
  O  O198  1  0.82185853  0.26742808  0.96523358  1
  O  O199  1  0.82638938  0.34282504  0.65217264  1
