# generated using pymatgen
data_Zn2SiH16(C7O2)4
_symmetry_space_group_name_H-M   'P 1'
_cell_length_a   12.91960400
_cell_length_b   12.91960400
_cell_length_c   23.81911363
_cell_angle_alpha   90.00000000
_cell_angle_beta   90.00000000
_cell_angle_gamma   90.00000000
_symmetry_Int_Tables_number   1
_chemical_formula_structural   Zn2SiH16(C7O2)4
_chemical_formula_sum   'Zn4 Si2 H32 C56 O16'
_cell_volume   3975.79516140
_cell_formula_units_Z   2
loop_
 _symmetry_equiv_pos_site_id
 _symmetry_equiv_pos_as_xyz
  1  'x, y, z'
loop_
 _atom_site_type_symbol
 _atom_site_label
 _atom_site_symmetry_multiplicity
 _atom_site_fract_x
 _atom_site_fract_y
 _atom_site_fract_z
 _atom_site_occupancy
  Zn  Zn0  1  0.59883080  -0.00000000  0.00000000  1
  Zn  Zn1  1  0.40116920  -0.00000000  0.00000000  1
  Zn  Zn2  1  -0.00000000  0.59883080  0.50000000  1
  Zn  Zn3  1  -0.00000000  0.40116920  0.50000000  1
  Si  Si4  1  0.50000000  0.50000000  0.75000000  1
  Si  Si5  1  0.50000000  0.50000000  0.25000000  1
  H  H6  1  0.66718175  0.62866936  0.80236925  1
  H  H7  1  0.66574705  0.76850129  0.87415683  1
  H  H8  1  0.33281825  0.37133064  0.80236925  1
  H  H9  1  0.33425295  0.23149871  0.87415683  1
  H  H10  1  0.37133064  0.66718175  0.30236925  1
  H  H11  1  0.23149871  0.66574705  0.37415683  1
  H  H12  1  0.62866936  0.33281825  0.30236925  1
  H  H13  1  0.76850129  0.33425295  0.37415683  1
  H  H14  1  0.33281825  0.62866936  0.19763075  1
  H  H15  1  0.33425295  0.76850129  0.12584317  1
  H  H16  1  0.66718175  0.37133064  0.19763075  1
  H  H17  1  0.66574705  0.23149871  0.12584317  1
  H  H18  1  0.62866936  0.66718175  0.69763075  1
  H  H19  1  0.76850129  0.66574705  0.62584317  1
  H  H20  1  0.37133064  0.33281825  0.69763075  1
  H  H21  1  0.23149871  0.33425295  0.62584317  1
  H  H22  1  0.33281825  0.37133064  0.19763075  1
  H  H23  1  0.33425295  0.23149871  0.12584317  1
  H  H24  1  0.66718175  0.62866936  0.19763075  1
  H  H25  1  0.66574705  0.76850129  0.12584317  1
  H  H26  1  0.62866936  0.33281825  0.69763075  1
  H  H27  1  0.76850129  0.33425295  0.62584317  1
  H  H28  1  0.37133064  0.66718175  0.69763075  1
  H  H29  1  0.23149871  0.66574705  0.62584317  1
  H  H30  1  0.66718175  0.37133064  0.80236925  1
  H  H31  1  0.66574705  0.23149871  0.87415683  1
  H  H32  1  0.33281825  0.62866936  0.80236925  1
  H  H33  1  0.33425295  0.76850129  0.87415683  1
  H  H34  1  0.37133064  0.33281825  0.30236925  1
  H  H35  1  0.23149871  0.33425295  0.37415683  1
  H  H36  1  0.62866936  0.66718175  0.30236925  1
  H  H37  1  0.76850129  0.66574705  0.37415683  1
  C  C38  1  0.59334970  0.65837633  0.81774630  1
  C  C39  1  0.59365731  0.73668035  0.85794723  1
  C  C40  1  0.40665030  0.34162367  0.81774630  1
  C  C41  1  0.40634269  0.26331965  0.85794723  1
  C  C42  1  0.34162367  0.59334970  0.31774630  1
  C  C43  1  0.26331965  0.59365731  0.35794723  1
  C  C44  1  0.65837633  0.40665030  0.31774630  1
  C  C45  1  0.73668035  0.40634269  0.35794723  1
  C  C46  1  0.40665030  0.65837633  0.18225370  1
  C  C47  1  0.40634269  0.73668035  0.14205277  1
  C  C48  1  0.59334970  0.34162367  0.18225370  1
  C  C49  1  0.59365731  0.26331965  0.14205277  1
  C  C50  1  0.65837633  0.59334970  0.68225370  1
  C  C51  1  0.73668035  0.59365731  0.64205277  1
  C  C52  1  0.34162367  0.40665030  0.68225370  1
  C  C53  1  0.26331965  0.40634269  0.64205277  1
  C  C54  1  0.40665030  0.34162367  0.18225370  1
  C  C55  1  0.40634269  0.26331965  0.14205277  1
  C  C56  1  0.59334970  0.65837633  0.18225370  1
  C  C57  1  0.59365731  0.73668035  0.14205277  1
  C  C58  1  0.65837633  0.40665030  0.68225370  1
  C  C59  1  0.73668035  0.40634269  0.64205277  1
  C  C60  1  0.34162367  0.59334970  0.68225370  1
  C  C61  1  0.26331965  0.59365731  0.64205277  1
  C  C62  1  0.59334970  0.34162367  0.81774630  1
  C  C63  1  0.59365731  0.26331965  0.85794723  1
  C  C64  1  0.40665030  0.65837633  0.81774630  1
  C  C65  1  0.40634269  0.73668035  0.85794723  1
  C  C66  1  0.34162367  0.40665030  0.31774630  1
  C  C67  1  0.26331965  0.40634269  0.35794723  1
  C  C68  1  0.65837633  0.59334970  0.31774630  1
  C  C69  1  0.73668035  0.59365731  0.35794723  1
  C  C70  1  0.50000000  0.61714048  0.79705223  1
  C  C71  1  0.50000000  0.77575473  0.87859049  1
  C  C72  1  0.50000000  0.85772209  0.92271712  1
  C  C73  1  0.50000000  0.38285952  0.79705223  1
  C  C74  1  0.50000000  0.22424527  0.87859049  1
  C  C75  1  0.50000000  0.14227791  0.92271712  1
  C  C76  1  0.38285952  0.50000000  0.29705223  1
  C  C77  1  0.22424527  0.50000000  0.37859049  1
  C  C78  1  0.14227791  0.50000000  0.42271712  1
  C  C79  1  0.61714048  0.50000000  0.29705223  1
  C  C80  1  0.77575473  0.50000000  0.37859049  1
  C  C81  1  0.85772209  0.50000000  0.42271712  1
  C  C82  1  0.50000000  0.61714048  0.20294777  1
  C  C83  1  0.50000000  0.77575473  0.12140951  1
  C  C84  1  0.50000000  0.85772209  0.07728288  1
  C  C85  1  0.50000000  0.38285952  0.20294777  1
  C  C86  1  0.50000000  0.22424527  0.12140951  1
  C  C87  1  0.50000000  0.14227791  0.07728288  1
  C  C88  1  0.61714048  0.50000000  0.70294777  1
  C  C89  1  0.77575473  0.50000000  0.62140951  1
  C  C90  1  0.85772209  0.50000000  0.57728288  1
  C  C91  1  0.38285952  0.50000000  0.70294777  1
  C  C92  1  0.22424527  0.50000000  0.62140951  1
  C  C93  1  0.14227791  0.50000000  0.57728288  1
  O  O94  1  0.58807540  0.88974602  0.94010747  1
  O  O95  1  0.41192460  0.11025398  0.94010747  1
  O  O96  1  0.11025398  0.58807540  0.44010747  1
  O  O97  1  0.88974602  0.41192460  0.44010747  1
  O  O98  1  0.41192460  0.88974602  0.05989253  1
  O  O99  1  0.58807540  0.11025398  0.05989253  1
  O  O100  1  0.88974602  0.58807540  0.55989253  1
  O  O101  1  0.11025398  0.41192460  0.55989253  1
  O  O102  1  0.41192460  0.11025398  0.05989253  1
  O  O103  1  0.58807540  0.88974602  0.05989253  1
  O  O104  1  0.88974602  0.41192460  0.55989253  1
  O  O105  1  0.11025398  0.58807540  0.55989253  1
  O  O106  1  0.58807540  0.11025398  0.94010747  1
  O  O107  1  0.41192460  0.88974602  0.94010747  1
  O  O108  1  0.11025398  0.41192460  0.44010747  1
  O  O109  1  0.88974602  0.58807540  0.44010747  1
