data_image0
_chemical_formula_structural       CO2
_chemical_formula_sum              "C1 O2"
_cell_length_a       13.9233
_cell_length_b       17.2479
_cell_length_c       6.87231
_cell_angle_alpha    89.9976
_cell_angle_beta     90.0008
_cell_angle_gamma    90.0028

_space_group_name_H-M_alt    "P 1"
_space_group_IT_number       1

loop_
  _space_group_symop_operation_xyz
  'x, y, z'

loop_
  _atom_site_type_symbol
  _atom_site_label
  _atom_site_symmetry_multiplicity
  _atom_site_fract_x
  _atom_site_fract_y
  _atom_site_fract_z
  _atom_site_occupancy
  C   C1        1.0  0.53631  0.43556  0.66316  1.0000
  O   O1        1.0  0.51112  0.41176  0.51119  1.0000
  O   O2        1.0  0.56147  0.45970  0.81502  1.0000
