data_image0
_chemical_formula_structural       Fe4C52N32
_chemical_formula_sum              "Fe4 C52 N32"
_cell_length_a       13.9233
_cell_length_b       17.2479
_cell_length_c       6.87231
_cell_angle_alpha    89.9976
_cell_angle_beta     90.0008
_cell_angle_gamma    90.0028

_space_group_name_H-M_alt    "P 1"
_space_group_IT_number       1

loop_
  _space_group_symop_operation_xyz
  'x, y, z'

loop_
  _atom_site_type_symbol
  _atom_site_label
  _atom_site_symmetry_multiplicity
  _atom_site_fract_x
  _atom_site_fract_y
  _atom_site_fract_z
  _atom_site_occupancy
  _atom_site_charge
  Fe  Fe1       1.0  0.25002  0.74998  0.50001  1.0000  0.811292
  Fe  Fe2       1.0  0.74998  0.25003  0.50010  1.0000  0.812334
  Fe  Fe3       1.0  0.74997  0.74997  0.50001  1.0000  0.811083
  Fe  Fe4       1.0  0.25003  0.25004  0.50004  1.0000  0.811937
  C   C1        1.0  0.10641  0.76477  0.16968  1.0000  0.295649
  C   C2        1.0  0.60649  0.26499  0.17011  1.0000  0.294268
  C   C3        1.0  0.89349  0.23523  0.16974  1.0000  0.294245
  C   C4        1.0  0.39362  0.73519  0.16971  1.0000  0.295774
  C   C5        1.0  0.89358  0.76476  0.83031  1.0000  0.295737
  C   C6        1.0  0.39352  0.26456  0.83049  1.0000  0.294511
  C   C7        1.0  0.10649  0.23530  0.83035  1.0000  0.294353
  C   C8        1.0  0.60640  0.73511  0.83030  1.0000  0.295331
  C   C9        1.0  0.89350  0.23533  0.83039  1.0000  0.294209
  C   C10       1.0  0.39363  0.73520  0.83031  1.0000  0.295553
  C   C11       1.0  0.10641  0.76476  0.83032  1.0000  0.295747
  C   C12       1.0  0.60655  0.26383  0.83100  1.0000  0.29438
  C   C13       1.0  0.10650  0.23525  0.16972  1.0000  0.294513
  C   C14       1.0  0.60641  0.73514  0.16970  1.0000  0.295761
  C   C15       1.0  0.89359  0.76476  0.16968  1.0000  0.295426
  C   C16       1.0  0.39349  0.26506  0.16991  1.0000  0.29444
  C   C17       1.0  0.05175  0.76994  -0.00001  1.0000  -0.082542
  C   C18       1.0  0.55179  0.26931  0.00043  1.0000  -0.082844
  C   C19       1.0  0.94819  0.23026  0.00004  1.0000  -0.08277
  C   C20       1.0  0.44828  0.73004  0.00002  1.0000  -0.0824
  C   C21       1.0  0.94823  0.76994  0.00001  1.0000  -0.082366
  C   C22       1.0  0.44823  0.26974  0.00021  1.0000  -0.083035
  C   C23       1.0  0.05180  0.23026  0.00002  1.0000  -0.08297
  C   C24       1.0  0.55176  0.73002  -0.00001  1.0000  -0.082433
  C   C25       1.0  0.00001  0.43554  0.31260  1.0000  0.196588
  C   C26       1.0  0.49999  0.93553  0.31263  1.0000  0.197222
  C   C27       1.0  0.00003  0.56448  0.31260  1.0000  0.197505
  C   C28       1.0  0.49997  0.06444  0.31261  1.0000  0.196513
  C   C29       1.0  0.00002  0.43553  0.68740  1.0000  0.19656
  C   C30       1.0  0.49999  0.93552  0.68741  1.0000  0.197539
  C   C31       1.0  0.00001  0.56447  0.68738  1.0000  0.197352
  C   C32       1.0  0.50000  0.06447  0.68738  1.0000  0.196551
  C   C33       1.0  0.07324  0.49998  0.39307  1.0000  -0.039843
  C   C34       1.0  0.57321  0.00002  0.39312  1.0000  -0.039312
  C   C35       1.0  0.92681  0.50001  0.39311  1.0000  -0.039268
  C   C36       1.0  0.42678  0.00001  0.39312  1.0000  -0.0397
  C   C37       1.0  0.92682  0.50000  0.60690  1.0000  -0.039328
  C   C38       1.0  0.42678  0.00002  0.60694  1.0000  -0.039882
  C   C39       1.0  0.07326  0.49997  0.60689  1.0000  -0.039737
  C   C40       1.0  0.57321  0.00002  0.60691  1.0000  -0.039288
  C   C41       1.0  0.21846  0.57400  0.49990  1.0000  0.274404
  C   C42       1.0  0.71867  0.07393  0.49999  1.0000  0.275931
  C   C43       1.0  0.78134  0.42617  0.49992  1.0000  0.275906
  C   C44       1.0  0.28157  0.92597  0.50003  1.0000  0.274438
  C   C45       1.0  0.78150  0.57402  0.50008  1.0000  0.274055
  C   C46       1.0  0.28132  0.07391  0.50000  1.0000  0.275931
  C   C47       1.0  0.21882  0.42611  0.49988  1.0000  0.275915
  C   C48       1.0  0.71841  0.92597  0.50000  1.0000  0.273995
  C   C49       1.0  0.17122  0.49996  0.49991  1.0000  0.030602
  C   C50       1.0  0.67118  0.00003  0.50000  1.0000  0.03015
  C   C51       1.0  0.82884  0.50003  0.50002  1.0000  0.03017
  C   C52       1.0  0.32882  0.00001  0.50002  1.0000  0.030561
  N   N1        1.0  0.15842  0.76036  0.30321  1.0000  -0.338936
  N   N2        1.0  0.65873  0.26037  0.30318  1.0000  -0.337542
  N   N3        1.0  0.84141  0.23966  0.30313  1.0000  -0.337471
  N   N4        1.0  0.34160  0.73962  0.30321  1.0000  -0.339029
  N   N5        1.0  0.84156  0.76037  0.69679  1.0000  -0.339027
  N   N6        1.0  0.34145  0.26054  0.69695  1.0000  -0.337487
  N   N7        1.0  0.15862  0.23952  0.69696  1.0000  -0.337245
  N   N8        1.0  0.65838  0.73957  0.69675  1.0000  -0.338759
  N   N9        1.0  0.84136  0.23949  0.69700  1.0000  -0.337494
  N   N10       1.0  0.34162  0.73959  0.69678  1.0000  -0.338937
  N   N11       1.0  0.15843  0.76036  0.69680  1.0000  -0.338994
  N   N12       1.0  0.65855  0.26062  0.69715  1.0000  -0.337589
  N   N13       1.0  0.15860  0.23960  0.30312  1.0000  -0.337469
  N   N14       1.0  0.65840  0.73959  0.30324  1.0000  -0.339
  N   N15       1.0  0.84158  0.76036  0.30322  1.0000  -0.338835
  N   N16       1.0  0.34136  0.26044  0.30314  1.0000  -0.337406
  N   N17       1.0  0.00001  0.37199  0.24143  1.0000  -0.41207
  N   N18       1.0  0.50001  0.87193  0.24147  1.0000  -0.412724
  N   N19       1.0  0.00002  0.62809  0.24149  1.0000  -0.412986
  N   N20       1.0  0.49997  0.12799  0.24135  1.0000  -0.41202
  N   N21       1.0  0.00002  0.37198  0.75856  1.0000  -0.412087
  N   N22       1.0  0.50000  0.87192  0.75854  1.0000  -0.413006
  N   N23       1.0  0.00001  0.62808  0.75852  1.0000  -0.412832
  N   N24       1.0  0.50000  0.12804  0.75851  1.0000  -0.412008
  N   N25       1.0  0.23366  0.64034  0.50000  1.0000  -0.271436
  N   N26       1.0  0.73371  0.14030  0.50005  1.0000  -0.272733
  N   N27       1.0  0.76617  0.35980  0.49997  1.0000  -0.272695
  N   N28       1.0  0.26639  0.85962  0.50002  1.0000  -0.271489
  N   N29       1.0  0.76632  0.64037  0.50006  1.0000  -0.270984
  N   N30       1.0  0.26625  0.14027  0.50002  1.0000  -0.272731
  N   N31       1.0  0.23391  0.35976  0.49999  1.0000  -0.272758
  N   N32       1.0  0.73360  0.85963  0.49999  1.0000  -0.270933
