data_image0
_chemical_formula_structural       Zn16H122C105N90O2
_chemical_formula_sum              "Zn16 H122 C105 N90 O2"
_cell_length_a       10.7268
_cell_length_b       11.9505
_cell_length_c       33.4806
_cell_angle_alpha    91.0424
_cell_angle_beta     92.9493
_cell_angle_gamma    88.9513

_space_group_name_H-M_alt    "P 1"
_space_group_IT_number       1

loop_
  _space_group_symop_operation_xyz
  'x, y, z'

loop_
  _atom_site_type_symbol
  _atom_site_label
  _atom_site_symmetry_multiplicity
  _atom_site_fract_x
  _atom_site_fract_y
  _atom_site_fract_z
  _atom_site_occupancy
  _atom_site_charge
  Zn  Zn1       1.0  0.70045  0.75927  0.48142  1.0000  0.662465
  Zn  Zn2       1.0  0.20953  0.76435  0.55010  1.0000  0.662618
  Zn  Zn3       1.0  0.24883  0.68233  0.72773  1.0000  0.754645
  Zn  Zn4       1.0  0.76305  0.74697  0.79721  1.0000  0.679106
  Zn  Zn5       1.0  0.72133  0.73495  0.97798  1.0000  0.665743
  Zn  Zn6       1.0  0.23304  0.74229  0.04539  1.0000  0.666189
  Zn  Zn7       1.0  0.21051  0.74556  0.22819  1.0000  0.664248
  Zn  Zn8       1.0  0.71981  0.75296  0.29887  1.0000  0.662838
  Zn  Zn9       1.0  0.29390  0.23484  0.01461  1.0000  0.665489
  Zn  Zn10      1.0  0.78049  0.22367  0.94085  1.0000  0.670133
  Zn  Zn11      1.0  0.23182  0.34539  0.71526  1.0000  0.814921
  Zn  Zn12      1.0  0.27000  0.26161  0.53139  1.0000  0.664352
  Zn  Zn13      1.0  0.75521  0.25330  0.45430  1.0000  0.670124
  Zn  Zn14      1.0  0.78048  0.25392  0.27112  1.0000  0.663334
  Zn  Zn15      1.0  0.26873  0.24927  0.19753  1.0000  0.664265
  Zn  Zn16      1.0  0.77614  0.26309  0.76203  1.0000  0.822769
  H   H1        1.0  0.17266  0.50718  0.75126  1.0000  0.35834
  H   H2        1.0  0.50572  0.49346  0.59058  1.0000  0.147689
  H   H3        1.0  0.39998  0.59542  0.61012  1.0000  0.140257
  H   H4        1.0  0.34511  0.49333  0.57451  1.0000  0.13366
  H   H5        1.0  0.46388  0.87821  0.46397  1.0000  0.130017
  H   H6        1.0  0.32159  0.80489  0.45575  1.0000  0.131505
  H   H7        1.0  0.09225  0.13293  0.57546  1.0000  0.147046
  H   H8        1.0  0.11921  0.99862  0.59687  1.0000  0.148274
  H   H9        1.0  0.00678  0.01578  0.55643  1.0000  0.150742
  H   H10       1.0  0.55777  0.88409  0.35631  1.0000  0.139531
  H   H11       1.0  0.49212  0.83105  0.39959  1.0000  0.147903
  H   H12       1.0  0.60748  0.93591  0.40434  1.0000  0.155996
  H   H13       1.0  0.98350  0.55506  0.42158  1.0000  0.151211
  H   H14       1.0  0.85129  0.50632  0.44518  1.0000  0.128267
  H   H15       1.0  0.96574  0.82277  0.58645  1.0000  0.135995
  H   H16       1.0  0.83136  0.86540  0.55643  1.0000  0.150037
  H   H17       1.0  0.82816  0.74030  0.58359  1.0000  0.157278
  H   H18       1.0  0.08937  0.96157  0.85055  1.0000  0.154552
  H   H19       1.0  0.94835  0.89136  0.85978  1.0000  0.132737
  H   H20       1.0  0.94416  0.00733  0.82735  1.0000  0.13737
  H   H21       1.0  0.99858  0.63752  0.70165  1.0000  0.136784
  H   H22       1.0  0.86108  0.72372  0.70201  1.0000  0.139086
  H   H23       1.0  0.66804  0.37921  0.81776  1.0000  0.136872
  H   H24       1.0  0.66891  0.52045  0.83468  1.0000  0.147962
  H   H25       1.0  0.56097  0.47632  0.79561  1.0000  0.164408
  H   H26       1.0  0.06258  0.63087  0.60182  1.0000  0.133902
  H   H27       1.0  0.99395  0.69229  0.64362  1.0000  0.140895
  H   H28       1.0  0.09499  0.57212  0.64957  1.0000  0.152248
  H   H29       1.0  0.50001  0.92328  0.67348  1.0000  0.145752
  H   H30       1.0  0.37292  0.96762  0.70160  1.0000  0.138845
  H   H31       1.0  0.51846  0.65667  0.83659  1.0000  0.133413
  H   H32       1.0  0.40100  0.59330  0.80417  1.0000  0.147374
  H   H33       1.0  0.36755  0.72034  0.82947  1.0000  0.155515
  H   H34       1.0  0.52858  0.48437  0.09235  1.0000  0.151532
  H   H35       1.0  0.40064  0.57491  0.10399  1.0000  0.135509
  H   H36       1.0  0.37708  0.46068  0.06995  1.0000  0.137644
  H   H37       1.0  0.48669  0.84205  0.95629  1.0000  0.128193
  H   H38       1.0  0.34499  0.76798  0.94860  1.0000  0.134806
  H   H39       1.0  0.10634  0.11401  0.05987  1.0000  0.148323
  H   H40       1.0  0.13075  0.98270  0.08372  1.0000  0.142348
  H   H41       1.0  0.02314  0.99474  0.04191  1.0000  0.151406
  H   H42       1.0  0.59803  0.87136  0.85193  1.0000  0.145915
  H   H43       1.0  0.52157  0.81224  0.89209  1.0000  0.149805
  H   H44       1.0  0.63497  0.91717  0.90168  1.0000  0.155468
  H   H45       1.0  0.99204  0.51432  0.92053  1.0000  0.150901
  H   H46       1.0  0.85309  0.48395  0.94425  1.0000  0.130351
  H   H47       1.0  0.99382  0.80577  0.08147  1.0000  0.135565
  H   H48       1.0  0.85836  0.84684  0.05184  1.0000  0.14981
  H   H49       1.0  0.85526  0.72490  0.08073  1.0000  0.159116
  H   H50       1.0  0.01803  0.00444  0.34408  1.0000  0.150666
  H   H51       1.0  0.88453  0.92454  0.35448  1.0000  0.132626
  H   H52       1.0  0.87003  0.03707  0.32045  1.0000  0.136439
  H   H53       1.0  0.97145  0.63104  0.20936  1.0000  0.130487
  H   H54       1.0  0.82935  0.70901  0.20204  1.0000  0.132557
  H   H55       1.0  0.59423  0.38671  0.31523  1.0000  0.145551
  H   H56       1.0  0.62453  0.51752  0.33995  1.0000  0.144745
  H   H57       1.0  0.51267  0.50967  0.29905  1.0000  0.151474
  H   H58       1.0  0.07594  0.61184  0.10210  1.0000  0.138707
  H   H59       1.0  0.00660  0.66809  0.14530  1.0000  0.147556
  H   H60       1.0  0.12593  0.56362  0.15007  1.0000  0.155927
  H   H61       1.0  0.48964  0.94225  0.16932  1.0000  0.149241
  H   H62       1.0  0.35524  0.99556  0.19211  1.0000  0.128981
  H   H63       1.0  0.47212  0.69619  0.33516  1.0000  0.13536
  H   H64       1.0  0.33950  0.65282  0.30476  1.0000  0.149743
  H   H65       1.0  0.33341  0.78123  0.33159  1.0000  0.158905
  H   H66       1.0  0.47046  0.47868  0.89575  1.0000  0.152932
  H   H67       1.0  0.59864  0.38978  0.88255  1.0000  0.131058
  H   H68       1.0  0.62351  0.50486  0.91628  1.0000  0.137845
  H   H69       1.0  0.53371  0.12911  0.03383  1.0000  0.129855
  H   H70       1.0  0.67426  0.20670  0.03841  1.0000  0.136869
  H   H71       1.0  0.91424  0.85322  0.93137  1.0000  0.146828
  H   H72       1.0  0.89626  0.98730  0.90893  1.0000  0.140186
  H   H73       1.0  0.99864  0.96889  0.95165  1.0000  0.155311
  H   H74       1.0  0.43931  0.12274  0.14110  1.0000  0.142043
  H   H75       1.0  0.50363  0.17709  0.09781  1.0000  0.147692
  H   H76       1.0  0.39398  0.06709  0.09322  1.0000  0.157052
  H   H77       1.0  0.99567  0.42679  0.07215  1.0000  0.152395
  H   H78       1.0  0.12552  0.48220  0.04921  1.0000  0.128885
  H   H79       1.0  0.03837  0.15547  0.90834  1.0000  0.132506
  H   H80       1.0  0.17000  0.11918  0.94048  1.0000  0.151237
  H   H81       1.0  0.17308  0.24157  0.91188  1.0000  0.161655
  H   H82       1.0  0.16153  0.23703  0.76680  1.0000  0.3219
  H   H83       1.0  0.98204  0.32430  0.88178  1.0000  0.146892
  H   H84       1.0  0.01062  0.29409  0.83031  1.0000  0.171606
  H   H85       1.0  0.90357  0.40112  0.84317  1.0000  0.155443
  H   H86       1.0  0.50826  0.05350  0.81446  1.0000  0.159743
  H   H87       1.0  0.62525  0.01368  0.78122  1.0000  0.130934
  H   H88       1.0  0.46939  0.40632  0.67540  1.0000  0.152677
  H   H89       1.0  0.59878  0.45076  0.70666  1.0000  0.152158
  H   H90       1.0  0.61998  0.34222  0.67091  1.0000  0.152037
  H   H91       1.0  0.44895  0.51460  0.41574  1.0000  0.150488
  H   H92       1.0  0.56763  0.42026  0.39912  1.0000  0.132035
  H   H93       1.0  0.60665  0.53052  0.43371  1.0000  0.135837
  H   H94       1.0  0.51592  0.14520  0.54777  1.0000  0.133661
  H   H95       1.0  0.65739  0.22107  0.55251  1.0000  0.131786
  H   H96       1.0  0.87896  0.88486  0.43442  1.0000  0.147112
  H   H97       1.0  0.85896  0.02149  0.41419  1.0000  0.139051
  H   H98       1.0  0.96781  0.99752  0.45504  1.0000  0.152556
  H   H99       1.0  0.40019  0.17227  0.66349  1.0000  0.145262
  H   H100      1.0  0.46985  0.21594  0.61933  1.0000  0.141025
  H   H101      1.0  0.35788  0.10835  0.61649  1.0000  0.153995
  H   H102      1.0  0.96802  0.46457  0.58080  1.0000  0.152981
  H   H103      1.0  0.10203  0.51184  0.55802  1.0000  0.126465
  H   H104      1.0  0.01675  0.18268  0.42031  1.0000  0.133263
  H   H105      1.0  0.14519  0.14040  0.45308  1.0000  0.1494
  H   H106      1.0  0.15494  0.26401  0.42550  1.0000  0.157767
  H   H107      1.0  0.96813  0.00363  0.15100  1.0000  0.149478
  H   H108      1.0  0.10934  0.07577  0.14339  1.0000  0.130579
  H   H109      1.0  0.10986  0.96112  0.17655  1.0000  0.137526
  H   H110      1.0  0.01946  0.36770  0.28878  1.0000  0.13231
  H   H111      1.0  0.16140  0.28914  0.29522  1.0000  0.134461
  H   H112      1.0  0.39717  0.61361  0.18321  1.0000  0.146165
  H   H113      1.0  0.37901  0.47735  0.16124  1.0000  0.140332
  H   H114      1.0  0.48313  0.49799  0.20354  1.0000  0.153871
  H   H115      1.0  0.92873  0.36923  0.39803  1.0000  0.13955
  H   H116      1.0  0.98820  0.31371  0.35313  1.0000  0.147938
  H   H117      1.0  0.87867  0.42730  0.35135  1.0000  0.156444
  H   H118      1.0  0.49000  0.06672  0.32854  1.0000  0.151129
  H   H119      1.0  0.62320  0.00824  0.30654  1.0000  0.12797
  H   H120      1.0  0.52415  0.30793  0.16240  1.0000  0.132957
  H   H121      1.0  0.65470  0.35084  0.19381  1.0000  0.149981
  H   H122      1.0  0.66220  0.22222  0.16719  1.0000  0.156784
  C   C1        1.0  0.42412  0.54715  0.58322  1.0000  -0.449076
  C   C2        1.0  0.45332  0.62238  0.55022  1.0000  0.38348
  C   C3        1.0  0.43604  0.74972  0.50560  1.0000  0.343128
  C   C4        1.0  0.38644  0.84144  0.47894  1.0000  -0.325851
  C   C5        1.0  0.09840  0.04304  0.56879  1.0000  -0.460903
  C   C6        1.0  0.32088  0.93409  0.50064  1.0000  0.334182
  C   C7        1.0  0.19672  0.01870  0.53999  1.0000  0.377434
  C   C8        1.0  0.57860  0.86030  0.38738  1.0000  -0.47029
  C   C9        1.0  0.81874  0.65316  0.41036  1.0000  0.32648
  C   C10       1.0  0.67765  0.77177  0.38926  1.0000  0.369739
  C   C11       1.0  0.90134  0.58230  0.43756  1.0000  -0.322501
  C   C12       1.0  0.88855  0.79319  0.56658  1.0000  -0.470169
  C   C13       1.0  0.94366  0.63918  0.47586  1.0000  0.33619
  C   C14       1.0  0.93593  0.72923  0.53185  1.0000  0.380856
  C   C15       1.0  -0.00025  0.93360  0.83711  1.0000  -0.451097
  C   C16       1.0  0.02133  0.85627  0.80291  1.0000  0.376977
  C   C17       1.0  0.98843  0.74619  0.75237  1.0000  0.335769
  C   C18       1.0  0.92782  0.67338  0.72068  1.0000  -0.33166
  C   C19       1.0  0.65700  0.46602  0.80816  1.0000  -0.470643
  C   C20       1.0  0.86305  0.57929  0.73881  1.0000  0.328744
  C   C21       1.0  0.74895  0.49342  0.77836  1.0000  0.36753
  C   C22       1.0  0.07938  0.65102  0.63358  1.0000  -0.483336
  C   C23       1.0  0.33534  0.83016  0.66238  1.0000  0.330718
  C   C24       1.0  0.18642  0.72699  0.63860  1.0000  0.382196
  C   C25       1.0  0.42296  0.89262  0.69035  1.0000  -0.313098
  C   C26       1.0  0.44160  0.67302  0.81463  1.0000  -0.469375
  C   C27       1.0  0.47436  0.83127  0.72608  1.0000  0.34333
  C   C28       1.0  0.48289  0.73824  0.78048  1.0000  0.38851
  C   C29       1.0  0.44322  0.52562  0.08011  1.0000  -0.452205
  C   C30       1.0  0.47416  0.59860  0.04672  1.0000  0.384296
  C   C31       1.0  0.45708  0.72064  0.00019  1.0000  0.345725
  C   C32       1.0  0.40851  0.80759  0.97158  1.0000  -0.323828
  C   C33       1.0  0.11356  0.02348  0.05479  1.0000  -0.461563
  C   C34       1.0  0.34204  0.90315  0.99110  1.0000  0.335871
  C   C35       1.0  0.21510  0.99479  0.02763  1.0000  0.37545
  C   C36       1.0  0.61104  0.84361  0.88287  1.0000  -0.470245
  C   C37       1.0  0.84225  0.62981  0.90800  1.0000  0.326508
  C   C38       1.0  0.70998  0.75498  0.88599  1.0000  0.371591
  C   C39       1.0  0.91352  0.55241  0.93584  1.0000  -0.32129
  C   C40       1.0  0.91512  0.77492  0.06253  1.0000  -0.469336
  C   C41       1.0  0.96055  0.61024  0.97347  1.0000  0.33755
  C   C42       1.0  0.95903  0.70676  0.02821  1.0000  0.381593
  C   C43       1.0  0.93159  0.96826  0.33112  1.0000  -0.45025
  C   C44       1.0  0.96128  0.88991  0.29788  1.0000  0.383572
  C   C45       1.0  0.94373  0.76113  0.25235  1.0000  0.344953
  C   C46       1.0  0.89411  0.67056  0.22480  1.0000  -0.325489
  C   C47       1.0  0.60328  0.47666  0.31081  1.0000  -0.461277
  C   C48       1.0  0.82799  0.58017  0.24519  1.0000  0.338619
  C   C49       1.0  0.70257  0.49846  0.28272  1.0000  0.374869
  C   C50       1.0  0.09473  0.63805  0.13327  1.0000  -0.467491
  C   C51       1.0  0.32748  0.84552  0.15757  1.0000  0.327839
  C   C52       1.0  0.19025  0.72669  0.13570  1.0000  0.370456
  C   C53       1.0  0.40743  0.91789  0.18500  1.0000  -0.320728
  C   C54       1.0  0.39528  0.72509  0.31493  1.0000  -0.468524
  C   C55       1.0  0.44968  0.86569  0.22370  1.0000  0.335808
  C   C56       1.0  0.44273  0.78393  0.28018  1.0000  0.38246
  C   C57       1.0  0.55794  0.43866  0.90684  1.0000  -0.44602
  C   C58       1.0  0.53263  0.36554  0.94073  1.0000  0.378545
  C   C59       1.0  0.55616  0.24601  0.98778  1.0000  0.346161
  C   C60       1.0  0.60913  0.16289  0.01705  1.0000  -0.329352
  C   C61       1.0  0.90872  0.94345  0.93736  1.0000  -0.462316
  C   C62       1.0  0.67617  0.06637  0.99846  1.0000  0.341031
  C   C63       1.0  0.80473  0.97265  0.96339  1.0000  0.372176
  C   C64       1.0  0.41840  0.14452  0.10983  1.0000  -0.470696
  C   C65       1.0  0.16617  0.33790  0.08448  1.0000  0.323265
  C   C66       1.0  0.31447  0.22838  0.10704  1.0000  0.370997
  C   C67       1.0  0.08008  0.40362  0.05659  1.0000  -0.321132
  C   C68       1.0  0.11192  0.18911  0.92879  1.0000  -0.471037
  C   C69       1.0  0.04310  0.34526  0.01795  1.0000  0.335638
  C   C70       1.0  0.05846  0.25470  0.96222  1.0000  0.380023
  C   C71       1.0  0.93924  0.31730  0.85152  1.0000  -0.476613
  C   C72       1.0  0.68034  0.13555  0.82665  1.0000  0.332195
  C   C73       1.0  0.83590  0.23585  0.84982  1.0000  0.381261
  C   C74       1.0  0.58480  0.08526  0.79766  1.0000  -0.330187
  C   C75       1.0  0.55426  0.37749  0.69207  1.0000  -0.466079
  C   C76       1.0  0.53158  0.16756  0.76766  1.0000  0.331836
  C   C77       1.0  0.52178  0.29359  0.72195  1.0000  0.376762
  C   C78       1.0  0.53505  0.46900  0.42484  1.0000  -0.44844
  C   C79       1.0  0.51049  0.39460  0.45853  1.0000  0.380819
  C   C80       1.0  0.53496  0.26992  0.50388  1.0000  0.345514
  C   C81       1.0  0.58975  0.18137  0.53090  1.0000  -0.325416
  C   C82       1.0  0.87568  0.97439  0.44184  1.0000  -0.461248
  C   C83       1.0  0.65430  0.08783  0.50939  1.0000  0.339352
  C   C84       1.0  0.77684  0.00033  0.47029  1.0000  0.37278
  C   C85       1.0  0.38268  0.18804  0.63158  1.0000  -0.463993
  C   C86       1.0  0.13516  0.37561  0.59745  1.0000  0.320967
  C   C87       1.0  0.28054  0.27290  0.62548  1.0000  0.376221
  C   C88       1.0  0.05375  0.43620  0.56699  1.0000  -0.323483
  C   C89       1.0  0.09048  0.21249  0.44151  1.0000  -0.465146
  C   C90       1.0  0.01921  0.37280  0.52947  1.0000  0.336893
  C   C91       1.0  0.03681  0.27850  0.47478  1.0000  0.386387
  C   C92       1.0  0.05528  0.03400  0.16555  1.0000  -0.450034
  C   C93       1.0  0.02646  0.11225  0.19892  1.0000  0.382781
  C   C94       1.0  0.04564  0.23939  0.24496  1.0000  0.34655
  C   C95       1.0  0.09610  0.32869  0.27286  1.0000  -0.32811
  C   C96       1.0  0.39257  0.52429  0.18955  1.0000  -0.461998
  C   C97       1.0  0.16240  0.41961  0.25288  1.0000  0.342538
  C   C98       1.0  0.29008  0.50228  0.21641  1.0000  0.374152
  C   C99       1.0  0.90456  0.34886  0.36662  1.0000  -0.46988
  C   C100      1.0  0.65614  0.15756  0.34098  1.0000  0.323047
  C   C101      1.0  0.80096  0.26789  0.36372  1.0000  0.374537
  C   C102      1.0  0.57413  0.08789  0.31323  1.0000  -0.32038
  C   C103      1.0  0.59920  0.27875  0.18327  1.0000  -0.467481
  C   C104      1.0  0.53602  0.14002  0.27415  1.0000  0.335806
  C   C105      1.0  0.54825  0.22054  0.21761  1.0000  0.383679
  N   N1        1.0  0.56372  0.62457  0.53411  1.0000  -0.302607
  N   N2        1.0  0.55166  0.70613  0.50553  1.0000  -0.252411
  N   N3        1.0  0.37041  0.69855  0.53314  1.0000  -0.417153
  N   N4        1.0  0.34468  0.04195  0.49738  1.0000  -0.286331
  N   N5        1.0  0.26527  0.09556  0.52292  1.0000  -0.277408
  N   N6        1.0  0.22918  0.91549  0.52650  1.0000  -0.432343
  N   N7        1.0  0.82556  0.65306  0.37089  1.0000  -0.291921
  N   N8        1.0  0.73491  0.72900  0.35760  1.0000  -0.271762
  N   N9        1.0  0.72703  0.72488  0.42317  1.0000  -0.442663
  N   N10       1.0  0.06087  0.64122  0.49047  1.0000  -0.295027
  N   N11       1.0  0.05505  0.69872  0.52655  1.0000  -0.277876
  N   N12       1.0  0.86295  0.69255  0.50047  1.0000  -0.419448
  N   N13       1.0  0.13352  0.82883  0.79036  1.0000  -0.301843
  N   N14       1.0  0.11137  0.75761  0.75802  1.0000  -0.262742
  N   N15       1.0  0.92659  0.80610  0.78022  1.0000  -0.439691
  N   N16       1.0  0.88106  0.47205  0.72974  1.0000  -0.234849
  N   N17       1.0  0.80824  0.41799  0.75539  1.0000  -0.287468
  N   N18       1.0  0.78254  0.59678  0.76877  1.0000  -0.421773
  N   N19       1.0  0.32421  0.85272  0.62373  1.0000  -0.301158
  N   N20       1.0  0.22865  0.78632  0.60877  1.0000  -0.272646
  N   N21       1.0  0.25211  0.75142  0.67318  1.0000  -0.443925
  N   N22       1.0  0.58595  0.85218  0.74324  1.0000  -0.315314
  N   N23       1.0  0.59115  0.79267  0.77832  1.0000  -0.29305
  N   N24       1.0  0.40789  0.75916  0.74773  1.0000  -0.423671
  N   N25       1.0  0.58574  0.60116  0.03150  1.0000  -0.305176
  N   N26       1.0  0.57373  0.67946  0.00176  1.0000  -0.25171
  N   N27       1.0  0.39058  0.67154  0.02807  1.0000  -0.42019
  N   N28       1.0  0.36274  0.01003  0.98439  1.0000  -0.291172
  N   N29       1.0  0.28154  0.06836  0.00809  1.0000  -0.279313
  N   N30       1.0  0.25124  0.88925  0.01779  1.0000  -0.433129
  N   N31       1.0  0.86246  0.63823  0.86942  1.0000  -0.29528
  N   N32       1.0  0.77712  0.71819  0.85555  1.0000  -0.275792
  N   N33       1.0  0.74806  0.70033  0.91972  1.0000  -0.446979
  N   N34       1.0  0.07928  0.61463  0.98661  1.0000  -0.294856
  N   N35       1.0  0.07745  0.67589  0.02202  1.0000  -0.284303
  N   N36       1.0  0.88283  0.66648  0.99813  1.0000  -0.421278
  N   N37       1.0  0.07074  0.88503  0.28118  1.0000  -0.303841
  N   N38       1.0  0.05862  0.80255  0.25198  1.0000  -0.252217
  N   N39       1.0  0.87867  0.81441  0.28078  1.0000  -0.418119
  N   N40       1.0  0.84769  0.47160  0.23878  1.0000  -0.292244
  N   N41       1.0  0.76738  0.41964  0.26313  1.0000  -0.277448
  N   N42       1.0  0.73864  0.60116  0.27218  1.0000  -0.430541
  N   N43       1.0  0.33281  0.84524  0.11805  1.0000  -0.294552
  N   N44       1.0  0.24454  0.76926  0.10425  1.0000  -0.273005
  N   N45       1.0  0.23906  0.77400  0.16997  1.0000  -0.443546
  N   N46       1.0  0.56560  0.86843  0.23941  1.0000  -0.294423
  N   N47       1.0  0.56044  0.81629  0.27583  1.0000  -0.283209
  N   N48       1.0  0.37022  0.81399  0.24785  1.0000  -0.419135
  N   N49       1.0  0.42430  0.36533  0.95813  1.0000  -0.300792
  N   N50       1.0  0.44022  0.28863  0.98827  1.0000  -0.247995
  N   N51       1.0  0.61846  0.29190  0.95811  1.0000  -0.42065
  N   N52       1.0  0.66076  0.96055  0.00795  1.0000  -0.288516
  N   N53       1.0  0.74289  0.90052  0.98509  1.0000  -0.279541
  N   N54       1.0  0.76372  0.07837  0.97057  1.0000  -0.432064
  N   N55       1.0  0.15800  0.33963  0.12392  1.0000  -0.289305
  N   N56       1.0  0.25336  0.26967  0.13819  1.0000  -0.269213
  N   N57       1.0  0.26335  0.27092  0.07255  1.0000  -0.446137
  N   N58       1.0  0.92762  0.34239  0.00171  1.0000  -0.294492
  N   N59       1.0  0.93824  0.28479  0.96578  1.0000  -0.285993
  N   N60       1.0  0.12729  0.29245  0.99445  1.0000  -0.418478
  N   N61       1.0  0.67630  0.13364  0.86606  1.0000  -0.275518
  N   N62       1.0  0.77568  0.19756  0.88079  1.0000  -0.269169
  N   N63       1.0  0.78026  0.19593  0.81501  1.0000  -0.477354
  N   N64       1.0  0.41160  0.19372  0.76179  1.0000  -0.281146
  N   N65       1.0  0.40597  0.27402  0.73249  1.0000  -0.271969
  N   N66       1.0  0.60496  0.22657  0.74312  1.0000  -0.485718
  N   N67       1.0  0.40374  0.39464  0.47685  1.0000  -0.302746
  N   N68       1.0  0.42008  0.31471  0.50599  1.0000  -0.253744
  N   N69       1.0  0.59567  0.31821  0.47436  1.0000  -0.419109
  N   N70       1.0  0.63711  0.98018  0.51581  1.0000  -0.290823
  N   N71       1.0  0.71529  0.92450  0.49039  1.0000  -0.277054
  N   N72       1.0  0.74005  0.10467  0.48127  1.0000  -0.430807
  N   N73       1.0  0.12515  0.39077  0.63648  1.0000  -0.271307
  N   N74       1.0  0.21886  0.32613  0.65445  1.0000  -0.279523
  N   N75       1.0  0.23147  0.30339  0.58888  1.0000  -0.447685
  N   N76       1.0  0.90525  0.37272  0.51221  1.0000  -0.298227
  N   N77       1.0  0.91704  0.31246  0.47693  1.0000  -0.288441
  N   N78       1.0  0.10416  0.31555  0.50751  1.0000  -0.420139
  N   N79       1.0  0.91771  0.11641  0.21608  1.0000  -0.303013
  N   N80       1.0  0.93086  0.19778  0.24563  1.0000  -0.250846
  N   N81       1.0  0.10969  0.18738  0.21596  1.0000  -0.420704
  N   N82       1.0  0.14502  0.52793  0.26041  1.0000  -0.288879
  N   N83       1.0  0.22672  0.58058  0.23672  1.0000  -0.280575
  N   N84       1.0  0.25116  0.39940  0.22558  1.0000  -0.429826
  N   N85       1.0  0.64764  0.15959  0.38039  1.0000  -0.291439
  N   N86       1.0  0.74071  0.23015  0.39479  1.0000  -0.271993
  N   N87       1.0  0.75101  0.22305  0.32912  1.0000  -0.445751
  N   N88       1.0  0.42136  0.13731  0.25739  1.0000  -0.294106
  N   N89       1.0  0.42983  0.18856  0.22094  1.0000  -0.286175
  N   N90       1.0  0.61795  0.19085  0.25061  1.0000  -0.419
  O   O1        1.0  0.23322  0.51847  0.73098  1.0000  -0.826187
  O   O2        1.0  0.11425  0.29354  0.75145  1.0000  -0.894642
