# generated using pymatgen
data_CuH6C7O4
_symmetry_space_group_name_H-M   'P 1'
_cell_length_a   8.53254180
_cell_length_b   8.53250270
_cell_length_c   14.51473606
_cell_angle_alpha   90.00000326
_cell_angle_beta   90.00000215
_cell_angle_gamma   89.99621311
_symmetry_Int_Tables_number   1
_chemical_formula_structural   CuH6C7O4
_chemical_formula_sum   'Cu4 H24 C28 O16'
_cell_volume   1056.72991148
_cell_formula_units_Z   4
loop_
 _symmetry_equiv_pos_site_id
 _symmetry_equiv_pos_as_xyz
  1  'x, y, z'
loop_
 _atom_site_type_symbol
 _atom_site_label
 _atom_site_symmetry_multiplicity
 _atom_site_fract_x
 _atom_site_fract_y
 _atom_site_fract_z
 _atom_site_occupancy
  Cu  Cu0  1  0.49998489  0.85494162  0.99999994  1
  Cu  Cu1  1  0.50001534  0.14505795  0.00000006  1
  Cu  Cu2  1  0.14505646  0.50001491  0.50000007  1
  Cu  Cu3  1  0.85494041  0.49998492  0.49999994  1
  H  H4  1  0.74724467  0.84992150  0.70663810  1
  H  H5  1  0.25275541  0.15007844  0.70663810  1
  H  H6  1  0.15009229  0.74723679  0.20664037  1
  H  H7  1  0.84990776  0.25276307  0.20664036  1
  H  H8  1  0.25276161  0.84990738  0.29335976  1
  H  H9  1  0.74723853  0.15009245  0.29335972  1
  H  H10  1  0.84992176  0.74724297  0.79336179  1
  H  H11  1  0.15007823  0.25275692  0.79336177  1
  H  H12  1  0.25275542  0.15007844  0.29336191  1
  H  H13  1  0.74724468  0.84992150  0.29336189  1
  H  H14  1  0.84990776  0.25276308  0.79335964  1
  H  H15  1  0.15009229  0.74723680  0.79335963  1
  H  H16  1  0.74723852  0.15009245  0.70664028  1
  H  H17  1  0.25276160  0.84990738  0.70664024  1
  H  H18  1  0.15007823  0.25275691  0.20663823  1
  H  H19  1  0.84992176  0.74724296  0.20663820  1
  H  H20  1  0.99996664  0.10469410  0.91677184  1
  H  H21  1  0.00003346  0.89530583  0.91677182  1
  H  H22  1  0.89530653  0.00003329  0.41677174  1
  H  H23  1  0.10469358  0.99996656  0.41677178  1
  H  H24  1  0.99996663  0.10469409  0.08322817  1
  H  H25  1  0.00003346  0.89530582  0.08322817  1
  H  H26  1  0.10469357  0.99996656  0.58322822  1
  H  H27  1  0.89530652  0.00003328  0.58322826  1
  C  C28  1  0.71297404  0.99997129  0.87815537  1
  C  C29  1  0.85268792  0.99999460  0.81080050  1
  C  C30  1  0.28702610  0.00002932  0.87815544  1
  C  C31  1  0.14731230  0.00000556  0.81080056  1
  C  C32  1  0.99997196  0.71297368  0.37815457  1
  C  C33  1  0.99999495  0.85268753  0.31080001  1
  C  C34  1  0.00002813  0.28702634  0.37815438  1
  C  C35  1  0.00000554  0.14731238  0.31079998  1
  C  C36  1  0.28702610  0.00002931  0.12184456  1
  C  C37  1  0.14731230  0.00000554  0.18919944  1
  C  C38  1  0.71297403  0.99997126  0.12184465  1
  C  C39  1  0.85268792  0.99999458  0.18919949  1
  C  C40  1  0.99997193  0.71297368  0.62184543  1
  C  C41  1  0.99999493  0.85268754  0.68919999  1
  C  C42  1  0.00002809  0.28702634  0.62184562  1
  C  C43  1  0.00000553  0.14731238  0.68920002  1
  C  C44  1  0.85260161  0.85260069  0.75000016  1
  C  C45  1  0.14739857  0.14739917  0.75000020  1
  C  C46  1  0.14740146  0.85259817  0.24999976  1
  C  C47  1  0.85259885  0.14740181  0.24999983  1
  C  C48  1  0.14739856  0.14739918  0.24999981  1
  C  C49  1  0.85260160  0.85260069  0.24999983  1
  C  C50  1  0.85259883  0.14740181  0.75000017  1
  C  C51  1  0.14740145  0.85259818  0.75000024  1
  C  C52  1  0.00000008  0.99999999  0.87260480  1
  C  C53  1  0.00000012  0.99999997  0.37260447  1
  C  C54  1  0.00000007  0.99999999  0.12739520  1
  C  C55  1  0.00000011  0.99999997  0.62739553  1
  O  O56  1  0.66415368  0.86632260  0.90442871  1
  O  O57  1  0.33584669  0.13367755  0.90442914  1
  O  O58  1  0.13363218  0.66413860  0.40442711  1
  O  O59  1  0.86636749  0.33586061  0.40442634  1
  O  O60  1  0.33586055  0.86636739  0.09557289  1
  O  O61  1  0.66413930  0.13363280  0.09557271  1
  O  O62  1  0.86632380  0.66415368  0.59557158  1
  O  O63  1  0.13367578  0.33584727  0.59557136  1
  O  O64  1  0.33584666  0.13367756  0.09557089  1
  O  O65  1  0.66415365  0.86632260  0.09557128  1
  O  O66  1  0.86636748  0.33586063  0.59557362  1
  O  O67  1  0.13363217  0.66413861  0.59557291  1
  O  O68  1  0.66413929  0.13363280  0.90442733  1
  O  O69  1  0.33586056  0.86636737  0.90442707  1
  O  O70  1  0.13367581  0.33584729  0.40442867  1
  O  O71  1  0.86632380  0.66415370  0.40442838  1
