# generated using pymatgen
data_Zn10H25(C11O6)4
_symmetry_space_group_name_H-M   'P 1'
_cell_length_a   4.49521467
_cell_length_b   14.36150316
_cell_length_c   40.94818025
_cell_angle_alpha   90.57575467
_cell_angle_beta   82.29873418
_cell_angle_gamma   88.86229304
_symmetry_Int_Tables_number   1
_chemical_formula_structural   Zn10H25(C11O6)4
_chemical_formula_sum   'Zn20 H50 C88 O48'
_cell_volume   2618.95825692
_cell_formula_units_Z   2
loop_
 _symmetry_equiv_pos_site_id
 _symmetry_equiv_pos_as_xyz
  1  'x, y, z'
loop_
 _atom_site_type_symbol
 _atom_site_label
 _atom_site_symmetry_multiplicity
 _atom_site_fract_x
 _atom_site_fract_y
 _atom_site_fract_z
 _atom_site_occupancy
  Zn  Zn0  1  0.15862812  0.36943366  0.74813963  1
  Zn  Zn1  1  0.84538596  0.41476312  0.70802799  1
  Zn  Zn2  1  0.83217702  0.65626918  0.75836600  1
  Zn  Zn3  1  0.14478301  0.57950347  0.79297761  1
  Zn  Zn4  1  0.97272784  0.81286535  0.52161010  1
  Zn  Zn5  1  0.16967330  0.12916968  0.44913852  1
  Zn  Zn6  1  0.28576098  0.94282895  0.53159109  1
  Zn  Zn7  1  0.84773410  0.11850589  0.50357158  1
  Zn  Zn8  1  0.82370304  0.88148089  0.04871964  1
  Zn  Zn9  1  0.02778150  0.19366699  0.97631614  1
  Zn  Zn10  1  0.15528761  0.88816893  0.99575255  1
  Zn  Zn11  1  0.71881418  0.06142494  0.96792212  1
  Zn  Zn12  1  0.82338838  0.62451293  0.29955261  1
  Zn  Zn13  1  0.02999180  0.30799889  0.22215163  1
  Zn  Zn14  1  0.14507459  0.61410421  0.24564071  1
  Zn  Zn15  1  0.71285510  0.44389045  0.21350380  1
  Zn  Zn16  1  0.18400078  0.53716489  0.72523074  1
  Zn  Zn17  1  0.93932136  0.46377601  0.26679837  1
  Zn  Zn18  1  0.95210637  0.04096349  0.02002340  1
  Zn  Zn19  1  0.05716914  0.96969800  0.47846904  1
  H  H20  1  0.73322125  0.05512110  0.58025965  1
  H  H21  1  0.90750125  0.10147852  0.63417869  1
  H  H22  1  0.22961352  0.31862334  0.64663364  1
  H  H23  1  0.04388286  0.26830087  0.59402114  1
  H  H24  1  0.35071766  0.21183957  0.72036171  1
  H  H25  1  0.65204708  0.31015151  0.75725143  1
  H  H26  1  0.99148896  0.21680416  0.71770166  1
  H  H27  1  0.26492656  0.94817232  0.92046828  1
  H  H28  1  0.07896252  0.90013555  0.86734336  1
  H  H29  1  0.74866207  0.68059739  0.85465994  1
  H  H30  1  0.94127948  0.73096994  0.90687866  1
  H  H31  1  0.61495805  0.81580149  0.78388650  1
  H  H32  1  0.30568996  0.69518289  0.75257152  1
  H  H33  1  0.97504679  0.80961830  0.78466145  1
  H  H34  1  0.31808693  0.55329382  0.64780971  1
  H  H35  1  0.11427166  0.64622107  0.60325737  1
  H  H36  1  0.74203990  0.85994857  0.61456818  1
  H  H37  1  0.93622749  0.77023285  0.66062777  1
  H  H38  1  0.78527638  0.42289959  0.33464598  1
  H  H39  1  0.95279799  0.32911764  0.38052767  1
  H  H40  1  0.27765332  0.13014173  0.36908521  1
  H  H41  1  0.13446807  0.21719379  0.32022395  1
  H  H42  1  0.91920764  0.40093429  0.46341882  1
  H  H43  1  0.93246179  0.57234071  0.47163526  1
  H  H44  1  0.04593051  0.56872227  0.52649925  1
  H  H45  1  0.03426870  0.39704421  0.51851960  1
  H  H46  1  0.24524548  0.59506427  0.16362293  1
  H  H47  1  0.06655882  0.68551156  0.11696562  1
  H  H48  1  0.72074895  0.89215335  0.12748529  1
  H  H49  1  0.88802316  0.80484243  0.17540600  1
  H  H50  1  0.70020496  0.43548617  0.84545735  1
  H  H51  1  0.90248399  0.34795741  0.89151974  1
  H  H52  1  0.26198254  0.13492479  0.88443382  1
  H  H53  1  0.07223895  0.21939811  0.83674579  1
  H  H54  1  0.95226429  0.43742777  0.97304131  1
  H  H55  1  0.96674738  0.60865485  0.98155159  1
  H  H56  1  0.08177813  0.60468318  0.03666241  1
  H  H57  1  0.06667361  0.43357171  0.02802942  1
  H  H58  1  0.21510309  0.92663355  0.41203893  1
  H  H59  1  0.04603769  0.82939467  0.36695680  1
  H  H60  1  0.72523203  0.62475480  0.37902807  1
  H  H61  1  0.87722969  0.71710504  0.42651710  1
  H  H62  1  0.78569778  0.06921241  0.08627347  1
  H  H63  1  0.95003809  0.15235181  0.13496632  1
  H  H64  1  0.26752108  0.36127949  0.13016973  1
  H  H65  1  0.11263579  0.28193735  0.07994770  1
  H  H66  1  0.06596765  0.91265423  0.28531482  1
  H  H67  1  0.07234770  0.08164344  0.27419331  1
  H  H68  1  0.96126820  0.05041290  0.22075899  1
  H  H69  1  0.95476350  0.88084303  0.23177217  1
  C  C70  1  0.69682878  0.25369266  0.67180013  1
  C  C71  1  0.29025495  0.12953235  0.55292185  1
  C  C72  1  0.63041969  0.11379907  0.59477862  1
  C  C73  1  0.73737171  0.14221945  0.62382782  1
  C  C74  1  0.33396106  0.25959862  0.63222632  1
  C  C75  1  0.21939132  0.22891538  0.60395437  1
  C  C76  1  0.38284762  0.15831440  0.58440235  1
  C  C77  1  0.58244701  0.21557904  0.64212424  1
  C  C78  1  0.28347910  0.74947068  0.82939036  1
  C  C79  1  0.70756524  0.87304563  0.94739421  1
  C  C80  1  0.36047810  0.88788431  0.90633613  1
  C  C81  1  0.24927159  0.85916086  0.87757972  1
  C  C82  1  0.64781692  0.74018344  0.86900976  1
  C  C83  1  0.76545252  0.77066293  0.89710316  1
  C  C84  1  0.60750747  0.84255529  0.91654255  1
  C  C85  1  0.40050570  0.78535577  0.85925236  1
  C  C86  1  0.29844705  0.81244215  0.58110705  1
  C  C87  1  0.75260183  0.60015084  0.68178064  1
  C  C88  1  0.39746400  0.62268479  0.64155172  1
  C  C89  1  0.27498916  0.67554165  0.61784303  1
  C  C90  1  0.65374155  0.79256087  0.62223576  1
  C  C91  1  0.77395290  0.74053555  0.64632513  1
  C  C92  1  0.63547390  0.65599479  0.65643493  1
  C  C93  1  0.41380370  0.75961402  0.60775439  1
  C  C94  1  0.70242646  0.16783921  0.40503381  1
  C  C95  1  0.35376000  0.37794734  0.29725948  1
  C  C96  1  0.68900479  0.35543405  0.34073769  1
  C  C97  1  0.79239557  0.30151068  0.36551636  1
  C  C98  1  0.39389877  0.19250000  0.36028246  1
  C  C99  1  0.29760125  0.24441939  0.33490562  1
  C  C100  1  0.45585337  0.32551344  0.32448493  1
  C  C101  1  0.63378078  0.22061338  0.37576278  1
  C  C102  1  0.49444974  0.68321210  0.50598113  1
  C  C103  1  0.47589749  0.28585468  0.48559691  1
  C  C104  1  0.72332331  0.43829679  0.47627120  1
  C  C105  1  0.73408365  0.53428516  0.48165051  1
  C  C106  1  0.24144814  0.53149494  0.51346945  1
  C  C107  1  0.23112656  0.43542606  0.50822601  1
  C  C108  1  0.49154485  0.58057162  0.50026565  1
  C  C109  1  0.47378518  0.38927231  0.48964278  1
  C  C110  1  0.29252096  0.84781957  0.09241158  1
  C  C111  1  0.68088366  0.64080059  0.19813988  1
  C  C112  1  0.33839323  0.66208159  0.15628218  1
  C  C113  1  0.22649492  0.71458295  0.13171517  1
  C  C114  1  0.61925227  0.82712168  0.13584325  1
  C  C115  1  0.72831802  0.77581367  0.16067507  1
  C  C116  1  0.57796797  0.69358742  0.17120824  1
  C  C117  1  0.37896119  0.79604454  0.12104012  1
  C  C118  1  0.70478454  0.18719469  0.91725327  1
  C  C119  1  0.24339691  0.38989034  0.81502284  1
  C  C120  1  0.61507524  0.36797115  0.85347791  1
  C  C121  1  0.73813565  0.31758620  0.87769246  1
  C  C122  1  0.35482560  0.20065737  0.87551122  1
  C  C123  1  0.23677804  0.24976453  0.85057341  1
  C  C124  1  0.37237917  0.33379281  0.83979987  1
  C  C125  1  0.59518681  0.23542905  0.88942563  1
  C  C126  1  0.52373222  0.72021854  0.01469297  1
  C  C127  1  0.50269071  0.32293096  0.99286243  1
  C  C128  1  0.75724222  0.47457818  0.98620970  1
  C  C129  1  0.76947373  0.57046356  0.99185227  1
  C  C130  1  0.27768636  0.56741201  0.02377833  1
  C  C131  1  0.26522784  0.47157901  0.01804768  1
  C  C132  1  0.52748358  0.61665073  0.01060289  1
  C  C133  1  0.50660711  0.42541364  0.99917008  1
  C  C134  1  0.29280738  0.66270471  0.34351616  1
  C  C135  1  0.65240447  0.88109369  0.44918740  1
  C  C136  1  0.31246463  0.85751099  0.40630262  1
  C  C137  1  0.20874307  0.80203638  0.38192431  1
  C  C138  1  0.61222590  0.69014251  0.38715364  1
  C  C139  1  0.71121469  0.74424714  0.41193585  1
  C  C140  1  0.54962343  0.82740110  0.42231661  1
  C  C141  1  0.36900047  0.71879630  0.37192502  1
  C  C142  1  0.71546771  0.31161892  0.16301814  1
  C  C143  1  0.34770157  0.12513673  0.05110334  1
  C  C144  1  0.68506485  0.13613248  0.09466118  1
  C  C145  1  0.78557075  0.18358904  0.12103257  1
  C  C146  1  0.37965272  0.29773301  0.11991186  1
  C  C147  1  0.28114652  0.25077278  0.09337008  1
  C  C148  1  0.44695571  0.17123946  0.07983993  1
  C  C149  1  0.62416588  0.26404432  0.13389592  1
  C  C150  1  0.51931556  0.17857967  0.23908726  1
  C  C151  1  0.50234981  0.78286690  0.26472718  1
  C  C152  1  0.26550786  0.94274611  0.27165109  1
  C  C153  1  0.26960310  0.03832801  0.26548709  1
  C  C154  1  0.76228659  0.02002247  0.23445548  1
  C  C155  1  0.75799322  0.92440516  0.24052300  1
  C  C156  1  0.50944593  0.88572086  0.25905952  1
  C  C157  1  0.51749630  0.07695128  0.24680750  1
  O  O158  1  0.75529775  0.34064305  0.67013336  1
  O  O159  1  0.72533605  0.20071080  0.69579626  1
  O  O160  1  0.05226829  0.16259411  0.54399837  1
  O  O161  1  0.46639998  0.06797060  0.53513013  1
  O  O162  1  0.15191856  0.23130935  0.73213831  1
  O  O163  1  0.59552827  0.36949431  0.74793218  1
  O  O164  1  0.22372834  0.66290769  0.83018120  1
  O  O165  1  0.25615786  0.80548984  0.80609615  1
  O  O166  1  0.94678503  0.84026031  0.95610315  1
  O  O167  1  0.53682644  0.93638589  0.96504261  1
  O  O168  1  0.81149721  0.80084260  0.77038350  1
  O  O169  1  0.42612054  0.63695099  0.75366605  1
  O  O170  1  0.42687942  0.88928004  0.57215947  1
  O  O171  1  0.08157270  0.77750994  0.56847119  1
  O  O172  1  0.98645506  0.62754043  0.69339642  1
  O  O173  1  0.61221785  0.52487801  0.69166023  1
  O  O174  1  0.52831198  0.10121262  0.41521700  1
  O  O175  1  0.92508589  0.19466624  0.41877750  1
  O  O176  1  0.10020969  0.35325099  0.28876075  1
  O  O177  1  0.49016312  0.44696962  0.28267375  1
  O  O178  1  0.30027470  0.73248265  0.49367566  1
  O  O179  1  0.68986841  0.71172626  0.52363214  1
  O  O180  1  0.67029821  0.24333004  0.50037299  1
  O  O181  1  0.28706213  0.25213308  0.46856432  1
  O  O182  1  0.45704343  0.91520261  0.08112282  1
  O  O183  1  0.06331597  0.81906156  0.08034288  1
  O  O184  1  0.91370228  0.66642441  0.20943482  1
  O  O185  1  0.51801091  0.56963609  0.20952807  1
  O  O186  1  0.57158415  0.11222555  0.92772307  1
  O  O187  1  0.92142447  0.22361170  0.92957433  1
  O  O188  1  0.06695090  0.35116824  0.79727767  1
  O  O189  1  0.31895674  0.47533552  0.81332197  1
  O  O190  1  0.32922703  0.76248810  0.99988828  1
  O  O191  1  0.71074841  0.75457967  0.03187891  1
  O  O192  1  0.69715592  0.27283283  0.00478500  1
  O  O193  1  0.30669870  0.29557163  0.97507906  1
  O  O194  1  0.46901435  0.59412872  0.33304770  1
  O  O195  1  0.06215659  0.68898082  0.33074279  1
  O  O196  1  0.90985616  0.85592206  0.45727970  1
  O  O197  1  0.51289273  0.95173517  0.46424642  1
  O  O198  1  0.56470342  0.38520723  0.17430293  1
  O  O199  1  0.93682831  0.27616961  0.17533745  1
  O  O200  1  0.08807172  0.15146521  0.04399648  1
  O  O201  1  0.49111707  0.05881289  0.03384400  1
  O  O202  1  0.71479318  0.22801079  0.25040498  1
  O  O203  1  0.32310028  0.20550715  0.22104675  1
  O  O204  1  0.30894747  0.73982548  0.25042897  1
  O  O205  1  0.68942540  0.74971625  0.28240337  1
